read_data	InitialFile.txt
Reading data file ...
  orthogonal box = (0 0 0) to (158.5 158.5 158.5)
  reading atoms ...
  100 atoms
  scanning bonds ...
  scanning angles ...
  scanning dihedrals ...
  reading bonds ...
  99 bonds
  reading angles ...
  98 angles
  reading dihedrals ...
  97 dihedrals
Finding 1-2 1-3 1-4 neighbors ...
     2 = max # of 1-2 neighbors
     2 = max # of 1-3 neighbors
     4 = max # of 1-4 neighbors
     6 = max # of special neighbors

# Dreiding potential information
neighbor	0.4 bin
neigh_modify	every 10 one 10000

bond_style      harmonic
bond_coeff	1 350 1.53
bond_coeff	2 700 1.53

angle_style     harmonic
angle_coeff	1 60 109.5
angle_coeff	2 120 109.5

dihedral_style	multi/harmonic
dihedral_coeff	1 1.73 -4.49 0.776 6.99 0.0
dihedral_coeff	2 1.73 -4.49 0.776 6.99 0.0

pair_style	lj/cut 10.5

pair_coeff	* * 0.112 4.01 10.5
pair_coeff	3 3 0.012 8 10.5

compute csym all centro/atom fcc
compute peratom all pe/atom

#####################################################
# Equilibration (Brownian dynamics at 300 K)

velocity 	all create 300.0 1231
fix		1 all nve/limit 0.05
fix 2 all brownian 300.0 12908410 gamma_t 1.0 rng gaussian
thermo_style	custom step temp
thermo          10000
timestep	1
run		1000000
Generated 0 of 3 mixed pair_coeff terms from geometric mixing rule
   Step          Temp
         0   300
     10000   8939.1581
     20000   8709.3054
     30000   9792.6506
     40000   9008.4607
     50000   8927.0851
     60000   9374.5412
     70000   9654.5018
     80000   8376.3891
     90000   10363.406
    100000   9609.367
    110000   9033.5013
    120000   9375.3352
    130000   9423.8074
    140000   9360.4705
    150000   8639.2516
    160000   9047.0961
    170000   9254.379
    180000   9968.4437
    190000   9766.5085
    200000   8989.0487
    210000   9621.4697
    220000   8759.3725
    230000   9277.4849
    240000   9745.1154
    250000   10219.731
    260000   8617.0394
    270000   9270.31
    280000   9058.4701
    290000   8564.0202
    300000   9363.4689
    310000   8650.0287
    320000   10750.134
    330000   9110.2921
    340000   9928.698
    350000   8943.7005
    360000   9951.9598
    370000   9050.151
    380000   8996.988
    390000   9556.46
    400000   9437.3364
    410000   8615.8595
    420000   8990.5179
    430000   8821.3268
    440000   9258.7
    450000   10001.122
    460000   9525.9694
    470000   9292.8772
    480000   9266.2498
    490000   9075.1391
    500000   9063.3313
    510000   9792.481
    520000   9451.6311
    530000   8815.622
    540000   8925.565
    550000   8857.5145
    560000   9571.2707
    570000   9517.0932
    580000   9612.1231
    590000   9883.6508
    600000   9882.7671
    610000   9942.8917
    620000   8545.3413
    630000   9397.5546
    640000   10313.215
    650000   9887.3982
    660000   9254.4706
    670000   9352.7088
    680000   9800.7379
    690000   9051.3355
    700000   9885.2477
    710000   9483.556
    720000   9554.8568
    730000   8130.3062
    740000   9825.5297
    750000   9942.7004
    760000   9335.1676
    770000   9410.3904
    780000   9390.464
    790000   9326.3041
    800000   8766.292
    810000   9954.2165
    820000   8885.1902
    830000   8940.4189
    840000   8552.2072
    850000   9732.0059
    860000   8730.4287
    870000   9068.6008
    880000   9522.2707
    890000   8412.027
    900000   9601.7627
    910000   10225.812
    920000   9451.3255
    930000   9702.0158
    940000   9213.3585
    950000   9640.5025
    960000   9486.2455
    970000   8975.9157
    980000   9311.4041
    990000   7912.1449
   1000000   8962.3487
Loop time of 38.4406 on 1 procs for 1000000 steps with 100 atoms

unfix 1
unfix 2
write_restart 	restart.InitialFile.dreiding1
System init for write_restart ...
Generated 0 of 3 mixed pair_coeff terms from geometric mixing rule

#####################################################
# Define Settings
compute eng all pe/atom
compute eatoms all reduce sum c_eng

#####################################################
# Minimization

dump mydmp all atom 100 dump.lammpstrj

reset_timestep 0
fix 1 all nvt temp 300.0 300.0 100.0
thermo 20
thermo_style custom step pe lx ly lz press pxx pyy pzz c_eatoms
min_style cg
minimize 1e-25 1e-25 500000 1000000
Generated 0 of 3 mixed pair_coeff terms from geometric mixing rule
Step         PotEng           Lx             Ly             Lz           Press           Pxx            Pyy            Pzz          c_eatoms
0   247.8526       158.5          158.5          158.5          31.280459      25.224695      30.56078       38.055902      247.8526
Averages over the last 32 of 64 rows, steps 640 to 1251:
PotEng Lx Ly Lz Press Pxx Pyy Pzz c_eatoms
57.3034 158.5 158.5 158.5 30.3664 25.7977 30.5612 34.7403 57.3034
Loop time of 0.103878 on 1 procs for 1251 steps with 100 atoms

Minimization stats:
  Stopping criterion = linesearch alpha is zero
  Energy initial, next-to-last, final =
  Force two-norm initial, final = 562.81733 1.8801879
  Force max component initial, final = 118.9464 0.69070942
  Final line search alpha, max atom move = 2.1163255e-09 1.461766e-09
  Iterations, force evaluations = 1251 2549

run 1000000
Generated 0 of 3 mixed pair_coeff terms from geometric mixing rule
Step         PotEng           Lx             Ly             Lz           Press           Pxx            Pyy            Pzz          c_eatoms
1251   56.521492      158.5          158.5          158.5          30.321489      25.706998      30.539303      34.718166      56.521492
Averages over the last 13789 of 27577 rows, steps 277000 to 552760:
PotEng Lx Ly Lz Press Pxx Pyy Pzz c_eatoms
141.469 158.5 158.5 158.5 -0.00574253 -0.0093966 0.00115588 -0.00898687 141.469
ERROR on proc 0: Bond atoms 99 100 missing on proc 0 at step 552771 (src/src/ntopo_bond_all.cpp:59)
Last command: run 1000000
