LAMMPS (2 Aug 2023 - Update 2)

# ----------------- Init Section -----------------

include "system.in.init"
# -- Styles used in "ForceField" --
# -- (Changing these styles will change the formulas above) --
units           real
atom_style      full
bond_style      harmonic
angle_style     harmonic
dihedral_style  charmm
pair_style      lj/cut 11.0

# ----------------- Atom Definition Section -----------------

read_data "system.data"
Reading data file ...
  orthogonal box = (0 0 0) to (90 90 90)
  reading atoms ...
  378 atoms
  scanning bonds ...
  scanning angles ...
  scanning dihedrals ...
  reading bonds ...
  351 bonds
  reading angles ...
  459 angles
  reading dihedrals ...
  270 dihedrals
Finding 1-2 1-3 1-4 neighbors ...
     3 = max # of 1-2 neighbors
     4 = max # of 1-3 neighbors
     8 = max # of 1-4 neighbors
    11 = max # of special neighbors

# ----------------- Settings Section -----------------

include "system.in.settings"
# Pairwise (non-bonded) interactions:
#           atomType1 atomType2   epsilon sigma
pair_coeff   1 1       0.10 2.0
pair_coeff   2  2        0.50 3.6
# (Interactions between different atoms are determined by mixing rules.)
#             bond-type        k     r0
bond_coeff  1   15.0   3.4
bond_coeff  2    15.0   3.7
#             angle-type       k    theta0
angle_coeff 1   30.00  114
angle_coeff 2  30.00  132
dihedral_coeff 1   -0.5 1 -180 0.0
dihedral_coeff 2   -1.5 1 -180 0.0

velocity 	all create 300.0 1231
fix		1 all nve/limit 0.05
fix 2 all brownian 30.0 12908410 gamma_t 3.0 rng gaussian # Compute a correct 300K simulation, check the value for gamma_t
thermo_style	custom step temp
thermo          10000
timestep	1
run		100000
Generated 1 of 1 mixed pair_coeff terms from geometric mixing rule
   Step          Temp
         0   300
     10000   644.08263
     20000   682.52169
     30000   686.48406
     40000   594.59055
     50000   649.04645
     60000   644.92117
     70000   658.04466
     80000   682.92473
     90000   662.90691
    100000   609.3202
Loop time of 24.0947 on 1 procs for 100000 steps with 378 atoms

unfix 1
unfix 2

#####################################################
# Define Settings
compute eng all pe/atom
compute eatoms all reduce sum c_eng

#####################################################
# Minimization

dump mydmp all atom 100 dump.lammpstrj

reset_timestep 0
fix 1 all nvt temp 300.0 300.0 100.0
thermo 20
thermo_style custom step pe lx ly lz press pxx pyy pzz c_eatoms
min_style cg
minimize 1e-25 1e-25 500000 1000000
Generated 1 of 1 mixed pair_coeff terms from geometric mixing rule
Step         PotEng           Lx             Ly             Lz           Press           Pxx            Pyy            Pzz          c_eatoms
0  -415.26473      90             90             90             32.258303      37.622663      18.877514      40.274731     -415.26473
Loop time of 0.125019 on 1 procs for 459 steps with 378 atoms

Minimization stats:
  Stopping criterion = linesearch alpha is zero
  Energy initial, next-to-last, final =
  Force two-norm initial, final = 62.217373 0.061810538
  Force max component initial, final = 8.8253018 0.010765583
  Final line search alpha, max atom move = 1.9073486e-06 2.0533719e-08
  Iterations, force evaluations = 459 940

run 100000
Generated 1 of 1 mixed pair_coeff terms from geometric mixing rule
Step         PotEng           Lx             Ly             Lz           Press           Pxx            Pyy            Pzz          c_eatoms
459  -472.78246      90             90             90             42.918564      44.179928      38.38574       46.190022     -472.78246
Averages over the last 2501 of 5002 rows, steps 50460 to 100459:
PotEng Lx Ly Lz Press Pxx Pyy Pzz c_eatoms
-227.571 90 90 90 1.53953 1.86018 1.21333 1.54508 -227.571
Loop time of 44.5503 on 1 procs for 100000 steps with 378 atoms
