LAMMPS (2 Aug 2023 - Update 2)
# VARIABLES
variable fname index InitialFile.txt
variable simname index InitialFile
variable lj_epsilon equal 1.0
variable lj_sigma equal 2.0

# Initialization
units		real
boundary	    p p p
atom_style	bond
read_data	InitialFile.txt
Reading data file ...
  orthogonal box = (0 0 0) to (15.5 15.5 15.5)
  reading atom labelmap ...
  reading atoms ...
  5 atoms
Finding 1-2 1-3 1-4 neighbors ...
     0 = max # of 1-2 neighbors
     0 = max # of 1-3 neighbors
     0 = max # of 1-4 neighbors
     1 = max # of special neighbors

# Dreiding potential information
neighbor	2.0 bin
neigh_modify every 1 delay 0 check yes

pair_style	lj/cut 10.5
pair_coeff	* * 10 1.0 10.5

compute csym all centro/atom fcc
compute peratom all pe/atom

#####################################################
# Equilibration (Brownian dynamics at 300 K)

velocity 	all create 300.0 1231
fix		1 all nve/limit 0.05
fix 2 all brownian 30.0 12908410 gamma_t 3.0 rng gaussian # Compute a correct 300K simulation, check the value for gamma_t
thermo_style	custom step temp
thermo          10000
timestep	1
run		100000
Generated 0 of 3 mixed pair_coeff terms from geometric mixing rule
   Step          Temp
         0   300
     10000   486.24444
     20000   427.75871
     30000   339.96558
     40000   426.98687
     50000   349.94314
     60000   520.09548
     70000   188.15718
     80000   394.25296
     90000   391.61046
    100000   263.77866
Loop time of 0.191188 on 1 procs for 100000 steps with 5 atoms

unfix 1
unfix 2
write_restart 	restart.InitialFile.dreiding1
System init for write_restart ...
Generated 0 of 3 mixed pair_coeff terms from geometric mixing rule

#####################################################
# Define Settings
compute eng all pe/atom
compute eatoms all reduce sum c_eng

#####################################################
# Minimization

dump mydmp all atom 100 dump.lammpstrj

reset_timestep 0
fix 1 all nvt temp 300.0 300.0 100.0
thermo 20
thermo_style custom step pe lx ly lz press pxx pyy pzz c_eatoms
min_style cg
minimize 1e-25 1e-25 500000 1000000
Generated 0 of 3 mixed pair_coeff terms from geometric mixing rule
Step         PotEng           Lx             Ly             Lz           Press           Pxx            Pyy            Pzz          c_eatoms
0  -39.69334       15.5           15.5           15.5           253.91627      374.77434      246.91757      140.05689     -39.69334
Loop time of 0.0013945 on 1 procs for 38 steps with 5 atoms

Minimization stats:
  Stopping criterion = linesearch alpha is zero
  Energy initial, next-to-last, final =
  Force two-norm initial, final = 31.409279 0.010656417
  Force max component initial, final = 16.07341 0.0066457003
  Final line search alpha, max atom move = 6.1035156e-05 4.0562135e-07
  Iterations, force evaluations = 38 179

unfix 1

molecule mol molTemplate.txt
Read molecule template mol:
  1 molecules
  0 fragments
  2 atoms with max type 3
  0 bonds with max type 0
  0 angles with max type 0
  0 dihedrals with max type 0
  0 impropers with max type 0
molecule mol2 molTemplate2.txt
Read molecule template mol2:
  1 molecules
  0 fragments
  2 atoms with max type 3
  0 bonds with max type 0
  0 angles with max type 0
  0 dihedrals with max type 0
  0 impropers with max type 0

#####################################################
# Do the reactions
fix rxns all bond/react stabilization yes statted_grp .03   react reac all 1 0 10 mol mol2 map.txt
dynamic group bond_react_MASTER_group defined
dynamic group statted_grp_REACT defined

fix 1 statted_grp_REACT nvt temp 300 300 100

thermo_style custom step temp f_rxns[1]

run 1000000

CITE-CITE-CITE-CITE-CITE-CITE-CITE-CITE-CITE-CITE-CITE-CITE-CITE

Your simulation uses code contributions which should be cited:

- fix bond/react: reacter.org doi:10.1016/j.polymer.2017.09.038, doi:10.1021/acs.macromol.0c02012

@Article{Gissinger17,
 author = {J. R. Gissinger and B. D. Jensen and K. E. Wise},
 title = {Modeling Chemical Reactions in Classical Molecular Dynamics Simulations},
 journal = {Polymer},
 year =    2017,
 volume =  128,
 pages =   {211--217}
}

@Article{Gissinger20,
 author = {J. R. Gissinger, B. D. Jensen, K. E. Wise},
 title = {{REACTER}: A Heuristic Method for Reactive Molecular Dynamics},
 journal = {Macromolecules},
 year =    2020,
 volume =  53,
 number =  22,
 pages =   {9953--9961}
}

CITE-CITE-CITE-CITE-CITE-CITE-CITE-CITE-CITE-CITE-CITE-CITE-CITE

Generated 0 of 3 mixed pair_coeff terms from geometric mixing rule
Step          Temp        f_rxns[1]
38   263.77866      0
Averages over the last 25001 of 50002 rows, steps 500040 to 1000038:
Temp f_rxns[1]
297.612 3
Loop time of 6.92213 on 1 procs for 1000000 steps with 5 atoms

#####################################################

# 3 options for the reaction:
  # 1 story telling avec fix/react et 5 atoms EN COURS
  # 2 story telling avec fix/react et 2 molecules
  # 3 envoyer un mail  Jacob Gissinger  FAIT
  # 4 tenter la mthode nave
