read_data	InitialFile.txt
Reading data file ...
  orthogonal box = (0 0 0) to (158.5 158.5 158.5)
  reading atoms ...
  100 atoms
  scanning bonds ...
  scanning angles ...
  scanning dihedrals ...
  reading bonds ...
  99 bonds
  reading angles ...
  98 angles
  reading dihedrals ...
  97 dihedrals
Finding 1-2 1-3 1-4 neighbors ...
     2 = max # of 1-2 neighbors
     2 = max # of 1-3 neighbors
     4 = max # of 1-4 neighbors
     6 = max # of special neighbors

# Dreiding potential information
neighbor	0.4 bin
neigh_modify	every 10 one 10000

bond_style      harmonic
bond_coeff	1 350 1.53
bond_coeff	2 700 1.53

angle_style     harmonic
angle_coeff	1 60 109.5
angle_coeff	2 120 109.5

dihedral_style	multi/harmonic
dihedral_coeff	1 1.73 -4.49 0.776 6.99 0.0
dihedral_coeff	2 1.73 -4.49 0.776 6.99 0.0

pair_style	lj/cut 10.5
pair_coeff	* * 1.0 1.0 10.5
pair_coeff	3 3 2.0 0.5 10.5

compute csym all centro/atom fcc
compute peratom all pe/atom

#####################################################
# Equilibration (Brownian dynamics at 300 K)

velocity 	all create 300.0 1231
fix		1 all nve/limit 0.05
fix 2 all brownian 30.0 12908410 gamma_t 3.0 rng gaussian
thermo_style	custom step temp
thermo          10000
timestep	1
run		1000000
Generated 0 of 3 mixed pair_coeff terms from geometric mixing rule
   Step          Temp
         0   300
     10000   301.14599
     20000   258.43265
     30000   315.00716
     40000   288.15873
     50000   282.34048
     60000   293.92088
     70000   308.43796
     80000   274.17263
     90000   333.82677
    100000   337.04712
    110000   309.97176
    120000   314.0924
    130000   309.89061
    140000   296.48134
    150000   271.77809
    160000   279.77006
    170000   283.853
    180000   335.99101
    190000   357.796
    200000   314.7671
    210000   332.66729
    220000   273.61032
    230000   306.67298
    240000   303.14073
    250000   344.10215
    260000   295.85945
    270000   298.46466
    280000   304.11064
    290000   263.50919
    300000   295.9124
    310000   311.93657
    320000   350.79045
    330000   311.41237
    340000   344.00264
    350000   281.54883
    360000   330.33302
    370000   298.10743
    380000   307.66511
    390000   335.25319
    400000   344.93276
    410000   289.30938
    420000   326.82922
    430000   249.22892
    440000   315.79941
    450000   297.73533
    460000   308.50711
    470000   288.42693
    480000   324.40317
    490000   305.94542
    500000   290.07966
    510000   300.06157
    520000   287.90675
    530000   291.00178
    540000   296.02708
    550000   276.27628
    560000   308.48626
    570000   335.02201
    580000   284.42159
    590000   330.95438
    600000   352.99151
    610000   334.89492
    620000   280.55252
    630000   305.18101
    640000   361.60053
    650000   327.75436
    660000   307.10484
    670000   297.64916
    680000   322.36729
    690000   288.93618
    700000   352.91649
    710000   341.47914
    720000   305.58465
    730000   316.84542
    740000   301.71003
    750000   335.34097
    760000   337.54496
    770000   318.63287
    780000   269.11127
    790000   289.23663
    800000   299.72077
    810000   319.93784
    820000   295.85271
    830000   280.39542
    840000   280.69223
    850000   318.99566
    860000   277.07941
    870000   312.92708
    880000   295.21949
    890000   313.71523
    900000   322.68429
    910000   339.29066
    920000   317.81231
    930000   362.05726
    940000   315.36712
    950000   322.38208
    960000   300.38349
    970000   333.03024
    980000   321.15436
    990000   286.21431
   1000000   271.72581
Loop time of 31.0024 on 1 procs for 1000000 steps with 100 atoms

unfix 1
unfix 2
write_restart 	restart.InitialFile.dreiding1
System init for write_restart ...
Generated 0 of 3 mixed pair_coeff terms from geometric mixing rule

#####################################################
# Define Settings
compute eng all pe/atom
compute eatoms all reduce sum c_eng

#####################################################
# Minimization

dump mydmp all atom 100 dump.lammpstrj

reset_timestep 0
fix 1 all nvt temp 300.0 300.0 100.0
thermo 20
thermo_style custom step pe lx ly lz press pxx pyy pzz c_eatoms
min_style cg
minimize 1e-25 1e-25 500000 1000000
Generated 0 of 3 mixed pair_coeff terms from geometric mixing rule
Step         PotEng           Lx             Ly             Lz           Press           Pxx            Pyy            Pzz          c_eatoms
0   18.131832      158.5          158.5          158.5         -0.54881319     0.28141613    -0.92358813    -1.0042676      18.131832
Averages over the last 33 of 65 rows, steps 640 to 1262:
PotEng Lx Ly Lz Press Pxx Pyy Pzz c_eatoms
0.711708 158.5 158.5 158.5 0.926654 0.814387 1.09974 0.865836 0.711708
Loop time of 0.135995 on 1 procs for 1262 steps with 100 atoms

Minimization stats:
  Stopping criterion = energy tolerance
  Energy initial, next-to-last, final =
  Force two-norm initial, final = 150.12715 0.34210972
  Force max component initial, final = 23.531238 0.12533344
  Final line search alpha, max atom move = 0.09973396 0.0125
  Iterations, force evaluations = 1262 3231

# Get the equilibrium distance of the harmonic bond (type 1)
variable eq_dist equal 1.0  # Replace with the actual equilibrium distance

# Continue with your simulation steps
thermo_style custom step temp
thermo 1000
timestep 1

# Specify the pair coefficients for your specific atom types
# For example, assuming you have three atom types, adjust as needed
pair_coeff * * 1.0 1.0 10.5
pair_coeff 3 3 2.0 0.5 10.5

# Specify the total number of timesteps
variable total_steps equal 10000  # Adjust as needed

# Loop over timesteps
label loop
  # Calculate distances at each timestep
  compute myDistances all pair lj/cut 2

  # Change atom of type 1 to type 2 if it's at a distance less than 2 from atom of type 2
  set type 1 type/subset 2 1 2304
Setting atom values ...
  1 settings made for type/subset

  # Change atom of type 2 to type 3 if it's at a distance less than 2 from atom of type 3
  set type 2 type/subset 3 1 2404
Setting atom values ...
  1 settings made for type/subset

  # Change atom of type 2 to type 1 if it's at a distance less than 2 from atom of type 1
  set type 2 type/subset 1 1 2604
Setting atom values ...
  1 settings made for type/subset

  # Change atom of type 3 to type 2 if it's at a distance less than 2 from atom of type 2
  set type 3 type/subset 2 1 2904
Setting atom values ...
  1 settings made for type/subset

  # Run a single timestep
  run 1
Generated 0 of 3 mixed pair_coeff terms from geometric mixing rule
   Step          Temp
      1262   271.72581
      1263   267.22225
Loop time of 0.000517135 on 1 procs for 1 steps with 100 atoms

  # Increment timestep counter
ERROR on proc 0: Substitution for illegal variable current_step (src/src/input.cpp:651)
