read_data	InitialFile.txt
Reading data file ...
  orthogonal box = (0 0 0) to (158.5 158.5 158.5)
  reading atoms ...
  10 atoms
  scanning bonds ...
  reading bonds ...
  9 bonds
Finding 1-2 1-3 1-4 neighbors ...
     2 = max # of 1-2 neighbors
     2 = max # of 1-3 neighbors
     4 = max # of 1-4 neighbors
     6 = max # of special neighbors

# Dreiding potential information
neighbor	2.0 bin
neigh_modify every 1 delay 0 check yes

bond_style      harmonic
bond_coeff	1 350 1.53
bond_coeff	2 700 1.53
special_bonds lj/coul 0.0 0.0 0.5
Finding 1-2 1-3 1-4 neighbors ...
     2 = max # of 1-2 neighbors
     2 = max # of 1-3 neighbors
     4 = max # of 1-4 neighbors
     6 = max # of special neighbors

pair_style	lj/cut 10.5
pair_coeff	* * 1.0 1.0 10.5
pair_coeff	3 3 2.0 0.5 10.5

compute csym all centro/atom fcc
compute peratom all pe/atom

#####################################################
# Equilibration (Brownian dynamics at 300 K)

velocity 	all create 300.0 1231
fix		1 all nve/limit 0.05
fix 2 all brownian 30.0 12908410 gamma_t 3.0 rng gaussian # Compute a correct 300K simulation, check the value for gamma_t
thermo_style	custom step temp
thermo          10000
timestep	1
run		100000
Generated 0 of 3 mixed pair_coeff terms from geometric mixing rule
   Step          Temp
         0   300
     10000   299.89449
     20000   302.23793
     30000   429.14934
     40000   280.5604
     50000   249.28905
     60000   348.43907
     70000   431.75493
     80000   283.13809
     90000   345.56343
    100000   455.66366
Loop time of 0.363536 on 1 procs for 100000 steps with 10 atoms

unfix 1
unfix 2
write_restart 	restart.InitialFile.dreiding1
System init for write_restart ...
Generated 0 of 3 mixed pair_coeff terms from geometric mixing rule

#####################################################
# Define Settings
compute eng all pe/atom
compute eatoms all reduce sum c_eng

#####################################################
# Minimization

dump mydmp all atom 100 dump.lammpstrj

reset_timestep 0
fix 1 all nvt temp 300.0 300.0 100.0
thermo 20
thermo_style custom step pe lx ly lz press pxx pyy pzz c_eatoms
min_style cg
minimize 1e-25 1e-25 500000 1000000
Generated 0 of 3 mixed pair_coeff terms from geometric mixing rule
Step         PotEng           Lx             Ly             Lz           Press           Pxx            Pyy            Pzz          c_eatoms
0  -18.226158      158.5          158.5          158.5          0.20856273     0.20118637     0.27583735     0.14866447    -18.226158
Loop time of 0.00699368 on 1 procs for 411 steps with 10 atoms

Minimization stats:
  Stopping criterion = energy tolerance
  Energy initial, next-to-last, final =
  Force two-norm initial, final = 38.473289 1.2105275e-06
  Force max component initial, final = 16.811143 4.9501349e-07
  Final line search alpha, max atom move = 1 4.9501349e-07
  Iterations, force evaluations = 411 913

molecule mol molTemplate.txt
ERROR on proc 0: Invalid header keyword: atom (src/src/molecule.cpp:507)
Last command: molecule mol molTemplate.txt
