read_data	/home/adrien/Documents/InternshipKU/MDSimulation/LAMMPSSimulation/Polymer/PE_cl100.txt
Reading data file ...
  orthogonal box = (0.0000000 0.0000000 0.0000000) to (158.50000 158.50000 100.00000)
  reading atoms ...
  100 atoms
  scanning bonds ...
  scanning angles ...
  scanning dihedrals ...
  reading bonds ...
  99 bonds
  reading angles ...
  98 angles
  reading dihedrals ...
  97 dihedrals
Finding 1-2 1-3 1-4 neighbors ...
     2 = max # of 1-2 neighbors
     2 = max # of 1-3 neighbors
     4 = max # of 1-4 neighbors
     6 = max # of special neighbors

# Dreiding potential information
neighbor	0.4 bin
neigh_modify	every 10 one 10000
bond_style      harmonic
bond_coeff	1 350 1.53
angle_style     harmonic
angle_coeff	1 60 109.5
dihedral_style	multi/harmonic
dihedral_coeff	1 1.73 -4.49 0.776 6.99 0.0
pair_style	lj/cut 10.5
pair_coeff	1 1 0.112 4.01 10.5

compute csym all centro/atom fcc
compute peratom all pe/atom

#####################################################
# Equilibration (Langevin dynamics at 5000 K)

velocity 	all create 5000.0 1231
fix		1 all nve/limit 0.05
fix		2 all langevin 5000.0 5000.0 10.0 904297
thermo_style	custom step temp
thermo          10000
timestep	1
run		1000000
  update every 10 steps, delay 10 steps, check yes
Step Temp
       0         5000
   10000    3934.1613
   20000     5035.255
   30000    4704.1544
   40000    4811.6591
   50000    5075.4117
   60000    4507.8036
   70000    4757.7086
   80000    4992.7922
   90000    4085.6849
  100000    4949.9355
  110000    4520.5145
  120000    5111.1754
  130000    4439.5495
  140000    4673.8045
  150000    4304.6358
  160000    4345.5833
  170000    4292.1925
  180000    4772.0583
  190000    4205.6812
  200000    4850.6325
  210000    4167.3128
  220000    4854.8857
  230000    4579.2446
  240000    5180.5615
  250000    4960.9736
  260000    4533.9273
  270000    4313.9626
  280000    4073.5072
  290000    5012.9501
  300000    5239.2026
  310000    4667.0728
  320000    4612.7632
  330000    3967.2052
  340000    5156.9299
  350000    4910.7727
  360000    4622.6152
  370000    4580.4356
  380000    4247.1794
  390000    4814.7312
  400000    4642.6743
  410000    4206.8943
  420000    4820.2103
  430000    4406.8127
  440000    4877.1465
  450000    5126.6319
  460000    5198.8509
  470000    4647.8015
  480000    5027.1342
  490000    4976.0405
  500000    5194.5947
  510000    5109.1369
  520000    5087.0774
  530000    4729.0939
  540000     5025.039
  550000    4538.8838
  560000    4683.9945
  570000    4346.4103
  580000     4964.823
  590000    4387.5291
  600000    4687.9498
  610000    5058.3942
  620000    4774.4017
  630000    4505.8189
  640000     4806.602
  650000    4291.0122
  660000    5017.9487
  670000    4709.4031
  680000    5158.9894
  690000    5218.3493
  700000    4632.2135
  710000     5428.503
  720000    4320.3814
  730000    4766.4624
  740000    4642.2177
  750000    5006.7638
  760000     4432.969
  770000    4399.4003
  780000    4550.6115
  790000    5187.8836
  800000    5189.6315
  810000    4580.3072
  820000    5313.2318
  830000    4775.3431
  840000    4800.1139
  850000    4401.4826
  860000    5271.0024
  870000    4886.1166
  880000    4519.8779
  890000    4419.3032
  900000    5259.3935
  910000    4811.7101
  920000     4155.717
  930000    4739.6535
  940000    5543.5129
  950000    4767.8843
  960000    5326.2424
  970000    4820.6348
  980000    4850.7074
  990000    4787.9924
 1000000    4414.5834
Loop time of 24.7269 on 1 procs for 1000000 steps with 100 atoms

unfix 1
unfix 2
write_restart 	restart.PE_cl100.dreiding1
System init for write_restart ...

#####################################################
# Define Settings
compute eng all pe/atom
compute eatoms all reduce sum c_eng

#####################################################
# Minimization

dump 		1 all cfg 6 dump.comp_*.cfg mass type xs ys zs c_csym c_peratom fx fy fz
dump myDump all atom 100 dump.comp_*.lammpstrj

reset_timestep 0
fix 1 all nvt temp 500.0 500.0 100.0
thermo 20
thermo_style custom step pe lx ly lz press pxx pyy pzz c_eatoms
min_style cg
minimize 1e-25 1e-25 500000 1000000
Step PotEng Lx Ly Lz Press Pxx Pyy Pzz c_eatoms
0    906.28706        158.5        158.5          100   -4.5597565    21.580183   -32.674461   -2.5849912    906.28706
Averages over the last 38 of 75 rows, steps 740 to 1480:
PotEng Lx Ly Lz Press Pxx Pyy Pzz c_eatoms
-4.46899 158.5 158.5 100 23.5891 26.1197 23.3375 21.3101 -4.46899
Loop time of 0.206869 on 1 procs for 1480 steps with 100 atoms

Minimization stats:
  Stopping criterion = linesearch alpha is zero
  Energy initial, next-to-last, final =
  Force two-norm initial, final = 1114.4281 1.2469541
  Force max component initial, final = 256.08710 0.28200477
  Final line search alpha, max atom move = 5.2841596e-09 1.4901582e-09
  Iterations, force evaluations = 1480 3036

print "All done"
All done
